<?xml version="1.0" encoding="UTF-8"?>

<!-- generated on 2019-01-15 21:18:20 +0530 by Eclipse SUMO netedit Version 619df18
<configuration xmlns:xsi="http://www.w3.org/2001/XMLSchema-instance" xsi:noNamespaceSchemaLocation="http://sumo.dlr.de/xsd/netconvertConfiguration.xsd">

    <input>
        <sumo-net-file value="./sumocfg/freeway.net.xml"/>
    </input>

    <output>
        <output-file value="./sumocfg/freeway.net.xml"/>
    </output>

    <processing>
        <no-turnarounds value="true"/>
        <offset.disable-normalization value="true"/>
        <lefthand value="false"/>
        <junctions.corner-detail value="0"/>
        <rectangular-lane-cut value="false"/>
        <walkingareas value="false"/>
    </processing>

    <visualisation>
        <registry-viewport value="true"/>
    </visualisation>

</configuration>
-->

<net version="0.27" xmlns:xsi="http://www.w3.org/2001/XMLSchema-instance" xsi:noNamespaceSchemaLocation="http://sumo.dlr.de/xsd/net_file.xsd">

    <location netOffset="0.00,254.00" convBoundary="0.00,0.00,50000.00,254.00" origBoundary="0.00,-254.00,50000.00,0.00" projParameter="!"/>

    <edge id=":node_0_1_0" function="internal">
        <lane id=":node_0_1_0_0" index="0" speed="90.11" length="3.20" shape="9398.50,236.40 9401.50,233.20"/>
        <lane id=":node_0_1_0_1" index="1" speed="90.11" length="3.20" shape="9398.50,236.40 9401.50,236.40"/>
        <lane id=":node_0_1_0_2" index="2" speed="90.11" length="3.20" shape="9398.50,239.60 9401.50,239.60"/>
        <lane id=":node_0_1_0_3" index="3" speed="90.11" length="3.20" shape="9398.50,242.80 9401.50,242.80"/>
        <lane id=":node_0_1_0_4" index="4" speed="90.11" length="3.20" shape="9398.50,246.00 9401.50,246.00"/>
        <lane id=":node_0_1_0_5" index="5" speed="90.11" length="3.20" shape="9398.50,249.20 9401.50,249.20"/>
        <lane id=":node_0_1_0_6" index="6" speed="90.11" length="3.20" shape="9398.50,252.40 9401.50,252.40"/>
    </edge>
    <edge id=":node_0_2_0" function="internal">
        <lane id=":node_0_2_0_0" index="0" speed="57.55" length="3.71" shape="9636.14,233.20 9637.24,233.18 9638.00,233.09 9638.71,232.84 9639.70,232.36"/>
    </edge>
    <edge id=":node_0_2_1" function="internal">
        <lane id=":node_0_2_1_0" index="0" speed="90.11" length="3.76" shape="9636.14,236.40 9639.90,236.40"/>
        <lane id=":node_0_2_1_1" index="1" speed="90.11" length="3.76" shape="9636.14,239.60 9639.90,239.60"/>
        <lane id=":node_0_2_1_2" index="2" speed="90.11" length="3.76" shape="9636.14,242.80 9639.90,242.80"/>
        <lane id=":node_0_2_1_3" index="3" speed="90.11" length="3.76" shape="9636.14,246.00 9639.90,246.00"/>
        <lane id=":node_0_2_1_4" index="4" speed="90.11" length="3.76" shape="9636.14,249.20 9639.90,249.20"/>
        <lane id=":node_0_2_1_5" index="5" speed="90.11" length="3.76" shape="9636.14,252.40 9639.90,252.40"/>
    </edge>
    <edge id=":node_0_3_0" function="internal">
        <lane id=":node_0_3_0_0" index="0" speed="57.55" length="3.71" shape="9760.30,232.36 9761.29,232.84 9762.00,233.09 9762.76,233.18 9763.86,233.20"/>
    </edge>
    <edge id=":node_0_3_1" function="internal">
        <lane id=":node_0_3_1_0" index="0" speed="90.11" length="3.76" shape="9760.10,236.40 9763.86,236.40"/>
        <lane id=":node_0_3_1_1" index="1" speed="90.11" length="3.76" shape="9760.10,239.60 9763.86,239.60"/>
        <lane id=":node_0_3_1_2" index="2" speed="90.11" length="3.76" shape="9760.10,242.80 9763.86,242.80"/>
        <lane id=":node_0_3_1_3" index="3" speed="90.11" length="3.76" shape="9760.10,246.00 9763.86,246.00"/>
        <lane id=":node_0_3_1_4" index="4" speed="90.11" length="3.76" shape="9760.10,249.20 9763.86,249.20"/>
        <lane id=":node_0_3_1_5" index="5" speed="90.11" length="3.76" shape="9760.10,252.40 9763.86,252.40"/>
    </edge>
    <edge id=":node_0_4_0" function="internal">
        <lane id=":node_0_4_0_0" index="0" speed="90.11" length="3.00" shape="9998.50,236.40 10001.50,236.40"/>
        <lane id=":node_0_4_0_1" index="1" speed="90.11" length="3.00" shape="9998.50,239.60 10001.50,239.60"/>
        <lane id=":node_0_4_0_2" index="2" speed="90.11" length="3.00" shape="9998.50,242.80 10001.50,242.80"/>
        <lane id=":node_0_4_0_3" index="3" speed="90.11" length="3.00" shape="9998.50,246.00 10001.50,246.00"/>
        <lane id=":node_0_4_0_4" index="4" speed="90.11" length="3.00" shape="9998.50,249.20 10001.50,249.20"/>
        <lane id=":node_0_4_0_5" index="5" speed="90.11" length="3.00" shape="9998.50,252.40 10001.50,252.40"/>
    </edge>
    <edge id=":node_0_5_0" function="internal">
        <lane id=":node_0_5_0_0" index="0" speed="25.00" length="4.48" shape="9701.60,200.52 9701.74,201.68 9702.16,202.67 9702.85,203.48 9703.83,204.12"/>
    </edge>
    <edge id=":node_0_5_1" function="internal">
        <lane id=":node_0_5_1_0" index="0" speed="25.00" length="2.53" shape="9701.60,200.52 9700.80,201.72 9700.00,202.12 9699.83,202.04"/>
    </edge>
    <edge id=":node_0_5_4" function="internal">
        <lane id=":node_0_5_4_0" index="0" speed="25.00" length="2.15" shape="9699.83,202.04 9699.20,201.72 9698.40,200.52"/>
    </edge>
    <edge id=":node_0_5_2" function="internal">
        <lane id=":node_0_5_2_0" index="0" speed="25.00" length="4.48" shape="9696.17,204.12 9697.15,203.48 9697.84,202.67 9698.26,201.68 9698.40,200.52"/>
    </edge>
    <edge id=":node_0_5_3" function="internal">
        <lane id=":node_0_5_3_0" index="0" speed="25.00" length="4.64" shape="9696.17,204.12 9698.09,203.41 9700.00,203.17 9700.67,203.25"/>
    </edge>
    <edge id=":node_0_5_5" function="internal">
        <lane id=":node_0_5_5_0" index="0" speed="25.00" length="3.30" shape="9700.67,203.25 9701.91,203.41 9703.83,204.12"/>
    </edge>
    <edge id=":node_0_6_0" function="internal">
        <lane id=":node_0_6_0_0" index="0" speed="25.00" length="0.10" shape="9698.40,4.00 9698.40,4.00"/>
    </edge>
    <edge id=":node_0_6_1" function="internal">
        <lane id=":node_0_6_1_0" index="0" speed="25.00" length="2.34" shape="9698.40,4.00 9699.20,2.80 9700.00,2.40"/>
    </edge>
    <edge id=":node_0_6_4" function="internal">
        <lane id=":node_0_6_4_0" index="0" speed="25.00" length="2.34" shape="9700.00,2.40 9700.80,2.80 9701.60,4.00"/>
    </edge>
    <edge id=":node_0_6_2" function="internal">
        <lane id=":node_0_6_2_0" index="0" speed="25.00" length="0.10" shape="9701.60,4.00 9701.60,4.00"/>
    </edge>
    <edge id=":node_0_6_3" function="internal">
        <lane id=":node_0_6_3_0" index="0" speed="25.00" length="2.34" shape="9701.60,4.00 9700.80,5.20 9700.00,5.60"/>
    </edge>
    <edge id=":node_0_6_5" function="internal">
        <lane id=":node_0_6_5_0" index="0" speed="25.00" length="2.34" shape="9700.00,5.60 9699.20,5.20 9698.40,4.00"/>
    </edge>
    <edge id=":node_0_7_0" function="internal">
        <lane id=":node_0_7_0_0" index="0" speed="25.00" length="4.67" shape="9698.40,0.00 9699.20,-1.20 9700.00,-1.60 9700.80,-1.20 9701.60,0.00"/>
    </edge>
    <edge id=":node_1_1_0" function="internal">
        <lane id=":node_1_1_0_0" index="0" speed="90.11" length="3.20" shape="19398.50,236.40 19401.50,233.20"/>
        <lane id=":node_1_1_0_1" index="1" speed="90.11" length="3.20" shape="19398.50,236.40 19401.50,236.40"/>
        <lane id=":node_1_1_0_2" index="2" speed="90.11" length="3.20" shape="19398.50,239.60 19401.50,239.60"/>
        <lane id=":node_1_1_0_3" index="3" speed="90.11" length="3.20" shape="19398.50,242.80 19401.50,242.80"/>
        <lane id=":node_1_1_0_4" index="4" speed="90.11" length="3.20" shape="19398.50,246.00 19401.50,246.00"/>
        <lane id=":node_1_1_0_5" index="5" speed="90.11" length="3.20" shape="19398.50,249.20 19401.50,249.20"/>
        <lane id=":node_1_1_0_6" index="6" speed="90.11" length="3.20" shape="19398.50,252.40 19401.50,252.40"/>
    </edge>
    <edge id=":node_1_2_0" function="internal">
        <lane id=":node_1_2_0_0" index="0" speed="57.55" length="3.71" shape="19636.14,233.20 19637.24,233.18 19638.00,233.09 19638.71,232.84 19639.70,232.36"/>
    </edge>
    <edge id=":node_1_2_1" function="internal">
        <lane id=":node_1_2_1_0" index="0" speed="90.11" length="3.76" shape="19636.14,236.40 19639.90,236.40"/>
        <lane id=":node_1_2_1_1" index="1" speed="90.11" length="3.76" shape="19636.14,239.60 19639.90,239.60"/>
        <lane id=":node_1_2_1_2" index="2" speed="90.11" length="3.76" shape="19636.14,242.80 19639.90,242.80"/>
        <lane id=":node_1_2_1_3" index="3" speed="90.11" length="3.76" shape="19636.14,246.00 19639.90,246.00"/>
        <lane id=":node_1_2_1_4" index="4" speed="90.11" length="3.76" shape="19636.14,249.20 19639.90,249.20"/>
        <lane id=":node_1_2_1_5" index="5" speed="90.11" length="3.76" shape="19636.14,252.40 19639.90,252.40"/>
    </edge>
    <edge id=":node_1_3_0" function="internal">
        <lane id=":node_1_3_0_0" index="0" speed="57.55" length="3.71" shape="19760.30,232.36 19761.29,232.84 19762.00,233.09 19762.76,233.18 19763.86,233.20"/>
    </edge>
    <edge id=":node_1_3_1" function="internal">
        <lane id=":node_1_3_1_0" index="0" speed="90.11" length="3.76" shape="19760.10,236.40 19763.86,236.40"/>
        <lane id=":node_1_3_1_1" index="1" speed="90.11" length="3.76" shape="19760.10,239.60 19763.86,239.60"/>
        <lane id=":node_1_3_1_2" index="2" speed="90.11" length="3.76" shape="19760.10,242.80 19763.86,242.80"/>
        <lane id=":node_1_3_1_3" index="3" speed="90.11" length="3.76" shape="19760.10,246.00 19763.86,246.00"/>
        <lane id=":node_1_3_1_4" index="4" speed="90.11" length="3.76" shape="19760.10,249.20 19763.86,249.20"/>
        <lane id=":node_1_3_1_5" index="5" speed="90.11" length="3.76" shape="19760.10,252.40 19763.86,252.40"/>
    </edge>
    <edge id=":node_1_4_0" function="internal">
        <lane id=":node_1_4_0_0" index="0" speed="90.11" length="3.00" shape="19998.50,236.40 20001.50,236.40"/>
        <lane id=":node_1_4_0_1" index="1" speed="90.11" length="3.00" shape="19998.50,239.60 20001.50,239.60"/>
        <lane id=":node_1_4_0_2" index="2" speed="90.11" length="3.00" shape="19998.50,242.80 20001.50,242.80"/>
        <lane id=":node_1_4_0_3" index="3" speed="90.11" length="3.00" shape="19998.50,246.00 20001.50,246.00"/>
        <lane id=":node_1_4_0_4" index="4" speed="90.11" length="3.00" shape="19998.50,249.20 20001.50,249.20"/>
        <lane id=":node_1_4_0_5" index="5" speed="90.11" length="3.00" shape="19998.50,252.40 20001.50,252.40"/>
    </edge>
    <edge id=":node_1_5_0" function="internal">
        <lane id=":node_1_5_0_0" index="0" speed="25.00" length="4.48" shape="19701.60,200.52 19701.74,201.68 19702.16,202.67 19702.85,203.48 19703.83,204.12"/>
    </edge>
    <edge id=":node_1_5_1" function="internal">
        <lane id=":node_1_5_1_0" index="0" speed="25.00" length="2.53" shape="19701.60,200.52 19700.80,201.72 19700.00,202.12 19699.83,202.04"/>
    </edge>
    <edge id=":node_1_5_4" function="internal">
        <lane id=":node_1_5_4_0" index="0" speed="25.00" length="2.15" shape="19699.83,202.04 19699.20,201.72 19698.40,200.52"/>
    </edge>
    <edge id=":node_1_5_2" function="internal">
        <lane id=":node_1_5_2_0" index="0" speed="25.00" length="4.48" shape="19696.17,204.12 19697.15,203.48 19697.84,202.67 19698.26,201.68 19698.40,200.52"/>
    </edge>
    <edge id=":node_1_5_3" function="internal">
        <lane id=":node_1_5_3_0" index="0" speed="25.00" length="4.64" shape="19696.17,204.12 19698.09,203.41 19700.00,203.17 19700.67,203.25"/>
    </edge>
    <edge id=":node_1_5_5" function="internal">
        <lane id=":node_1_5_5_0" index="0" speed="25.00" length="3.30" shape="19700.67,203.25 19701.91,203.41 19703.83,204.12"/>
    </edge>
    <edge id=":node_1_6_0" function="internal">
        <lane id=":node_1_6_0_0" index="0" speed="25.00" length="0.10" shape="19698.40,4.00 19698.40,4.00"/>
    </edge>
    <edge id=":node_1_6_1" function="internal">
        <lane id=":node_1_6_1_0" index="0" speed="25.00" length="2.34" shape="19698.40,4.00 19699.20,2.80 19700.00,2.40"/>
    </edge>
    <edge id=":node_1_6_4" function="internal">
        <lane id=":node_1_6_4_0" index="0" speed="25.00" length="2.34" shape="19700.00,2.40 19700.80,2.80 19701.60,4.00"/>
    </edge>
    <edge id=":node_1_6_2" function="internal">
        <lane id=":node_1_6_2_0" index="0" speed="25.00" length="0.10" shape="19701.60,4.00 19701.60,4.00"/>
    </edge>
    <edge id=":node_1_6_3" function="internal">
        <lane id=":node_1_6_3_0" index="0" speed="25.00" length="2.34" shape="19701.60,4.00 19700.80,5.20 19700.00,5.60"/>
    </edge>
    <edge id=":node_1_6_5" function="internal">
        <lane id=":node_1_6_5_0" index="0" speed="25.00" length="2.34" shape="19700.00,5.60 19699.20,5.20 19698.40,4.00"/>
    </edge>
    <edge id=":node_1_7_0" function="internal">
        <lane id=":node_1_7_0_0" index="0" speed="25.00" length="4.67" shape="19698.40,0.00 19699.20,-1.20 19700.00,-1.60 19700.80,-1.20 19701.60,0.00"/>
    </edge>
    <edge id=":node_2_1_0" function="internal">
        <lane id=":node_2_1_0_0" index="0" speed="90.11" length="3.20" shape="29398.50,236.40 29401.50,233.20"/>
        <lane id=":node_2_1_0_1" index="1" speed="90.11" length="3.20" shape="29398.50,236.40 29401.50,236.40"/>
        <lane id=":node_2_1_0_2" index="2" speed="90.11" length="3.20" shape="29398.50,239.60 29401.50,239.60"/>
        <lane id=":node_2_1_0_3" index="3" speed="90.11" length="3.20" shape="29398.50,242.80 29401.50,242.80"/>
        <lane id=":node_2_1_0_4" index="4" speed="90.11" length="3.20" shape="29398.50,246.00 29401.50,246.00"/>
        <lane id=":node_2_1_0_5" index="5" speed="90.11" length="3.20" shape="29398.50,249.20 29401.50,249.20"/>
        <lane id=":node_2_1_0_6" index="6" speed="90.11" length="3.20" shape="29398.50,252.40 29401.50,252.40"/>
    </edge>
    <edge id=":node_2_2_0" function="internal">
        <lane id=":node_2_2_0_0" index="0" speed="57.55" length="3.71" shape="29636.14,233.20 29637.24,233.18 29638.00,233.09 29638.71,232.84 29639.70,232.36"/>
    </edge>
    <edge id=":node_2_2_1" function="internal">
        <lane id=":node_2_2_1_0" index="0" speed="90.11" length="3.76" shape="29636.14,236.40 29639.90,236.40"/>
        <lane id=":node_2_2_1_1" index="1" speed="90.11" length="3.76" shape="29636.14,239.60 29639.90,239.60"/>
        <lane id=":node_2_2_1_2" index="2" speed="90.11" length="3.76" shape="29636.14,242.80 29639.90,242.80"/>
        <lane id=":node_2_2_1_3" index="3" speed="90.11" length="3.76" shape="29636.14,246.00 29639.90,246.00"/>
        <lane id=":node_2_2_1_4" index="4" speed="90.11" length="3.76" shape="29636.14,249.20 29639.90,249.20"/>
        <lane id=":node_2_2_1_5" index="5" speed="90.11" length="3.76" shape="29636.14,252.40 29639.90,252.40"/>
    </edge>
    <edge id=":node_2_3_0" function="internal">
        <lane id=":node_2_3_0_0" index="0" speed="57.55" length="3.71" shape="29760.30,232.36 29761.29,232.84 29762.00,233.09 29762.76,233.18 29763.86,233.20"/>
    </edge>
    <edge id=":node_2_3_1" function="internal">
        <lane id=":node_2_3_1_0" index="0" speed="90.11" length="3.76" shape="29760.10,236.40 29763.86,236.40"/>
        <lane id=":node_2_3_1_1" index="1" speed="90.11" length="3.76" shape="29760.10,239.60 29763.86,239.60"/>
        <lane id=":node_2_3_1_2" index="2" speed="90.11" length="3.76" shape="29760.10,242.80 29763.86,242.80"/>
        <lane id=":node_2_3_1_3" index="3" speed="90.11" length="3.76" shape="29760.10,246.00 29763.86,246.00"/>
        <lane id=":node_2_3_1_4" index="4" speed="90.11" length="3.76" shape="29760.10,249.20 29763.86,249.20"/>
        <lane id=":node_2_3_1_5" index="5" speed="90.11" length="3.76" shape="29760.10,252.40 29763.86,252.40"/>
    </edge>
    <edge id=":node_2_4_0" function="internal">
        <lane id=":node_2_4_0_0" index="0" speed="90.11" length="3.00" shape="29998.50,236.40 30001.50,236.40"/>
        <lane id=":node_2_4_0_1" index="1" speed="90.11" length="3.00" shape="29998.50,239.60 30001.50,239.60"/>
        <lane id=":node_2_4_0_2" index="2" speed="90.11" length="3.00" shape="29998.50,242.80 30001.50,242.80"/>
        <lane id=":node_2_4_0_3" index="3" speed="90.11" length="3.00" shape="29998.50,246.00 30001.50,246.00"/>
        <lane id=":node_2_4_0_4" index="4" speed="90.11" length="3.00" shape="29998.50,249.20 30001.50,249.20"/>
        <lane id=":node_2_4_0_5" index="5" speed="90.11" length="3.00" shape="29998.50,252.40 30001.50,252.40"/>
    </edge>
    <edge id=":node_2_5_0" function="internal">
        <lane id=":node_2_5_0_0" index="0" speed="25.00" length="4.48" shape="29701.60,200.52 29701.74,201.68 29702.16,202.67 29702.85,203.48 29703.83,204.12"/>
    </edge>
    <edge id=":node_2_5_1" function="internal">
        <lane id=":node_2_5_1_0" index="0" speed="25.00" length="2.53" shape="29701.60,200.52 29700.80,201.72 29700.00,202.12 29699.83,202.04"/>
    </edge>
    <edge id=":node_2_5_4" function="internal">
        <lane id=":node_2_5_4_0" index="0" speed="25.00" length="2.15" shape="29699.83,202.04 29699.20,201.72 29698.40,200.52"/>
    </edge>
    <edge id=":node_2_5_2" function="internal">
        <lane id=":node_2_5_2_0" index="0" speed="25.00" length="4.48" shape="29696.17,204.12 29697.15,203.48 29697.84,202.67 29698.26,201.68 29698.40,200.52"/>
    </edge>
    <edge id=":node_2_5_3" function="internal">
        <lane id=":node_2_5_3_0" index="0" speed="25.00" length="4.64" shape="29696.17,204.12 29698.09,203.41 29700.00,203.17 29700.67,203.25"/>
    </edge>
    <edge id=":node_2_5_5" function="internal">
        <lane id=":node_2_5_5_0" index="0" speed="25.00" length="3.30" shape="29700.67,203.25 29701.91,203.41 29703.83,204.12"/>
    </edge>
    <edge id=":node_2_6_0" function="internal">
        <lane id=":node_2_6_0_0" index="0" speed="25.00" length="0.10" shape="29698.40,4.00 29698.40,4.00"/>
    </edge>
    <edge id=":node_2_6_1" function="internal">
        <lane id=":node_2_6_1_0" index="0" speed="25.00" length="2.34" shape="29698.40,4.00 29699.20,2.80 29700.00,2.40"/>
    </edge>
    <edge id=":node_2_6_4" function="internal">
        <lane id=":node_2_6_4_0" index="0" speed="25.00" length="2.34" shape="29700.00,2.40 29700.80,2.80 29701.60,4.00"/>
    </edge>
    <edge id=":node_2_6_2" function="internal">
        <lane id=":node_2_6_2_0" index="0" speed="25.00" length="0.10" shape="29701.60,4.00 29701.60,4.00"/>
    </edge>
    <edge id=":node_2_6_3" function="internal">
        <lane id=":node_2_6_3_0" index="0" speed="25.00" length="2.34" shape="29701.60,4.00 29700.80,5.20 29700.00,5.60"/>
    </edge>
    <edge id=":node_2_6_5" function="internal">
        <lane id=":node_2_6_5_0" index="0" speed="25.00" length="2.34" shape="29700.00,5.60 29699.20,5.20 29698.40,4.00"/>
    </edge>
    <edge id=":node_2_7_0" function="internal">
        <lane id=":node_2_7_0_0" index="0" speed="25.00" length="4.67" shape="29698.40,0.00 29699.20,-1.20 29700.00,-1.60 29700.80,-1.20 29701.60,0.00"/>
    </edge>
    <edge id=":node_3_1_0" function="internal">
        <lane id=":node_3_1_0_0" index="0" speed="90.11" length="3.20" shape="39398.50,236.40 39401.50,233.20"/>
        <lane id=":node_3_1_0_1" index="1" speed="90.11" length="3.20" shape="39398.50,236.40 39401.50,236.40"/>
        <lane id=":node_3_1_0_2" index="2" speed="90.11" length="3.20" shape="39398.50,239.60 39401.50,239.60"/>
        <lane id=":node_3_1_0_3" index="3" speed="90.11" length="3.20" shape="39398.50,242.80 39401.50,242.80"/>
        <lane id=":node_3_1_0_4" index="4" speed="90.11" length="3.20" shape="39398.50,246.00 39401.50,246.00"/>
        <lane id=":node_3_1_0_5" index="5" speed="90.11" length="3.20" shape="39398.50,249.20 39401.50,249.20"/>
        <lane id=":node_3_1_0_6" index="6" speed="90.11" length="3.20" shape="39398.50,252.40 39401.50,252.40"/>
    </edge>
    <edge id=":node_3_2_0" function="internal">
        <lane id=":node_3_2_0_0" index="0" speed="57.55" length="3.71" shape="39636.14,233.20 39637.24,233.18 39638.00,233.09 39638.71,232.84 39639.70,232.36"/>
    </edge>
    <edge id=":node_3_2_1" function="internal">
        <lane id=":node_3_2_1_0" index="0" speed="90.11" length="3.76" shape="39636.14,236.40 39639.90,236.40"/>
        <lane id=":node_3_2_1_1" index="1" speed="90.11" length="3.76" shape="39636.14,239.60 39639.90,239.60"/>
        <lane id=":node_3_2_1_2" index="2" speed="90.11" length="3.76" shape="39636.14,242.80 39639.90,242.80"/>
        <lane id=":node_3_2_1_3" index="3" speed="90.11" length="3.76" shape="39636.14,246.00 39639.90,246.00"/>
        <lane id=":node_3_2_1_4" index="4" speed="90.11" length="3.76" shape="39636.14,249.20 39639.90,249.20"/>
        <lane id=":node_3_2_1_5" index="5" speed="90.11" length="3.76" shape="39636.14,252.40 39639.90,252.40"/>
    </edge>
    <edge id=":node_3_3_0" function="internal">
        <lane id=":node_3_3_0_0" index="0" speed="57.55" length="3.71" shape="39760.30,232.36 39761.29,232.84 39762.00,233.09 39762.76,233.18 39763.86,233.20"/>
    </edge>
    <edge id=":node_3_3_1" function="internal">
        <lane id=":node_3_3_1_0" index="0" speed="90.11" length="3.76" shape="39760.10,236.40 39763.86,236.40"/>
        <lane id=":node_3_3_1_1" index="1" speed="90.11" length="3.76" shape="39760.10,239.60 39763.86,239.60"/>
        <lane id=":node_3_3_1_2" index="2" speed="90.11" length="3.76" shape="39760.10,242.80 39763.86,242.80"/>
        <lane id=":node_3_3_1_3" index="3" speed="90.11" length="3.76" shape="39760.10,246.00 39763.86,246.00"/>
        <lane id=":node_3_3_1_4" index="4" speed="90.11" length="3.76" shape="39760.10,249.20 39763.86,249.20"/>
        <lane id=":node_3_3_1_5" index="5" speed="90.11" length="3.76" shape="39760.10,252.40 39763.86,252.40"/>
    </edge>
    <edge id=":node_3_4_0" function="internal">
        <lane id=":node_3_4_0_0" index="0" speed="90.11" length="3.00" shape="39998.50,236.40 40001.50,236.40"/>
        <lane id=":node_3_4_0_1" index="1" speed="90.11" length="3.00" shape="39998.50,239.60 40001.50,239.60"/>
        <lane id=":node_3_4_0_2" index="2" speed="90.11" length="3.00" shape="39998.50,242.80 40001.50,242.80"/>
        <lane id=":node_3_4_0_3" index="3" speed="90.11" length="3.00" shape="39998.50,246.00 40001.50,246.00"/>
        <lane id=":node_3_4_0_4" index="4" speed="90.11" length="3.00" shape="39998.50,249.20 40001.50,249.20"/>
        <lane id=":node_3_4_0_5" index="5" speed="90.11" length="3.00" shape="39998.50,252.40 40001.50,252.40"/>
    </edge>
    <edge id=":node_3_5_0" function="internal">
        <lane id=":node_3_5_0_0" index="0" speed="25.00" length="4.48" shape="39701.60,200.52 39701.74,201.68 39702.16,202.67 39702.85,203.48 39703.83,204.12"/>
    </edge>
    <edge id=":node_3_5_1" function="internal">
        <lane id=":node_3_5_1_0" index="0" speed="25.00" length="2.53" shape="39701.60,200.52 39700.80,201.72 39700.00,202.12 39699.83,202.04"/>
    </edge>
    <edge id=":node_3_5_4" function="internal">
        <lane id=":node_3_5_4_0" index="0" speed="25.00" length="2.15" shape="39699.83,202.04 39699.20,201.72 39698.40,200.52"/>
    </edge>
    <edge id=":node_3_5_2" function="internal">
        <lane id=":node_3_5_2_0" index="0" speed="25.00" length="4.48" shape="39696.17,204.12 39697.15,203.48 39697.84,202.67 39698.26,201.68 39698.40,200.52"/>
    </edge>
    <edge id=":node_3_5_3" function="internal">
        <lane id=":node_3_5_3_0" index="0" speed="25.00" length="4.64" shape="39696.17,204.12 39698.09,203.41 39700.00,203.17 39700.67,203.25"/>
    </edge>
    <edge id=":node_3_5_5" function="internal">
        <lane id=":node_3_5_5_0" index="0" speed="25.00" length="3.30" shape="39700.67,203.25 39701.91,203.41 39703.83,204.12"/>
    </edge>
    <edge id=":node_3_6_0" function="internal">
        <lane id=":node_3_6_0_0" index="0" speed="25.00" length="0.10" shape="39698.40,4.00 39698.40,4.00"/>
    </edge>
    <edge id=":node_3_6_1" function="internal">
        <lane id=":node_3_6_1_0" index="0" speed="25.00" length="2.34" shape="39698.40,4.00 39699.20,2.80 39700.00,2.40"/>
    </edge>
    <edge id=":node_3_6_4" function="internal">
        <lane id=":node_3_6_4_0" index="0" speed="25.00" length="2.34" shape="39700.00,2.40 39700.80,2.80 39701.60,4.00"/>
    </edge>
    <edge id=":node_3_6_2" function="internal">
        <lane id=":node_3_6_2_0" index="0" speed="25.00" length="0.10" shape="39701.60,4.00 39701.60,4.00"/>
    </edge>
    <edge id=":node_3_6_3" function="internal">
        <lane id=":node_3_6_3_0" index="0" speed="25.00" length="2.34" shape="39701.60,4.00 39700.80,5.20 39700.00,5.60"/>
    </edge>
    <edge id=":node_3_6_5" function="internal">
        <lane id=":node_3_6_5_0" index="0" speed="25.00" length="2.34" shape="39700.00,5.60 39699.20,5.20 39698.40,4.00"/>
    </edge>
    <edge id=":node_3_7_0" function="internal">
        <lane id=":node_3_7_0_0" index="0" speed="25.00" length="4.67" shape="39698.40,0.00 39699.20,-1.20 39700.00,-1.60 39700.80,-1.20 39701.60,0.00"/>
    </edge>
    <edge id=":node_4_1_0" function="internal">
        <lane id=":node_4_1_0_0" index="0" speed="90.11" length="3.20" shape="49398.50,236.40 49401.50,233.20"/>
        <lane id=":node_4_1_0_1" index="1" speed="90.11" length="3.20" shape="49398.50,236.40 49401.50,236.40"/>
        <lane id=":node_4_1_0_2" index="2" speed="90.11" length="3.20" shape="49398.50,239.60 49401.50,239.60"/>
        <lane id=":node_4_1_0_3" index="3" speed="90.11" length="3.20" shape="49398.50,242.80 49401.50,242.80"/>
        <lane id=":node_4_1_0_4" index="4" speed="90.11" length="3.20" shape="49398.50,246.00 49401.50,246.00"/>
        <lane id=":node_4_1_0_5" index="5" speed="90.11" length="3.20" shape="49398.50,249.20 49401.50,249.20"/>
        <lane id=":node_4_1_0_6" index="6" speed="90.11" length="3.20" shape="49398.50,252.40 49401.50,252.40"/>
    </edge>
    <edge id=":node_4_2_0" function="internal">
        <lane id=":node_4_2_0_0" index="0" speed="57.55" length="3.71" shape="49636.14,233.20 49637.24,233.18 49638.00,233.09 49638.71,232.84 49639.70,232.36"/>
    </edge>
    <edge id=":node_4_2_1" function="internal">
        <lane id=":node_4_2_1_0" index="0" speed="90.11" length="3.76" shape="49636.14,236.40 49639.90,236.40"/>
        <lane id=":node_4_2_1_1" index="1" speed="90.11" length="3.76" shape="49636.14,239.60 49639.90,239.60"/>
        <lane id=":node_4_2_1_2" index="2" speed="90.11" length="3.76" shape="49636.14,242.80 49639.90,242.80"/>
        <lane id=":node_4_2_1_3" index="3" speed="90.11" length="3.76" shape="49636.14,246.00 49639.90,246.00"/>
        <lane id=":node_4_2_1_4" index="4" speed="90.11" length="3.76" shape="49636.14,249.20 49639.90,249.20"/>
        <lane id=":node_4_2_1_5" index="5" speed="90.11" length="3.76" shape="49636.14,252.40 49639.90,252.40"/>
    </edge>
    <edge id=":node_4_3_0" function="internal">
        <lane id=":node_4_3_0_0" index="0" speed="57.55" length="3.71" shape="49760.30,232.36 49761.29,232.84 49762.00,233.09 49762.76,233.18 49763.86,233.20"/>
    </edge>
    <edge id=":node_4_3_1" function="internal">
        <lane id=":node_4_3_1_0" index="0" speed="90.11" length="3.76" shape="49760.10,236.40 49763.86,236.40"/>
        <lane id=":node_4_3_1_1" index="1" speed="90.11" length="3.76" shape="49760.10,239.60 49763.86,239.60"/>
        <lane id=":node_4_3_1_2" index="2" speed="90.11" length="3.76" shape="49760.10,242.80 49763.86,242.80"/>
        <lane id=":node_4_3_1_3" index="3" speed="90.11" length="3.76" shape="49760.10,246.00 49763.86,246.00"/>
        <lane id=":node_4_3_1_4" index="4" speed="90.11" length="3.76" shape="49760.10,249.20 49763.86,249.20"/>
        <lane id=":node_4_3_1_5" index="5" speed="90.11" length="3.76" shape="49760.10,252.40 49763.86,252.40"/>
    </edge>
    <edge id=":node_4_5_0" function="internal">
        <lane id=":node_4_5_0_0" index="0" speed="25.00" length="4.48" shape="49701.60,200.52 49701.74,201.68 49702.16,202.67 49702.85,203.48 49703.83,204.12"/>
    </edge>
    <edge id=":node_4_5_1" function="internal">
        <lane id=":node_4_5_1_0" index="0" speed="25.00" length="2.53" shape="49701.60,200.52 49700.80,201.72 49700.00,202.12 49699.83,202.04"/>
    </edge>
    <edge id=":node_4_5_4" function="internal">
        <lane id=":node_4_5_4_0" index="0" speed="25.00" length="2.15" shape="49699.83,202.04 49699.20,201.72 49698.40,200.52"/>
    </edge>
    <edge id=":node_4_5_2" function="internal">
        <lane id=":node_4_5_2_0" index="0" speed="25.00" length="4.48" shape="49696.17,204.12 49697.15,203.48 49697.84,202.67 49698.26,201.68 49698.40,200.52"/>
    </edge>
    <edge id=":node_4_5_3" function="internal">
        <lane id=":node_4_5_3_0" index="0" speed="25.00" length="4.64" shape="49696.17,204.12 49698.09,203.41 49700.00,203.17 49700.67,203.25"/>
    </edge>
    <edge id=":node_4_5_5" function="internal">
        <lane id=":node_4_5_5_0" index="0" speed="25.00" length="3.30" shape="49700.67,203.25 49701.91,203.41 49703.83,204.12"/>
    </edge>
    <edge id=":node_4_6_0" function="internal">
        <lane id=":node_4_6_0_0" index="0" speed="25.00" length="0.10" shape="49698.40,4.00 49698.40,4.00"/>
    </edge>
    <edge id=":node_4_6_1" function="internal">
        <lane id=":node_4_6_1_0" index="0" speed="25.00" length="2.34" shape="49698.40,4.00 49699.20,2.80 49700.00,2.40"/>
    </edge>
    <edge id=":node_4_6_4" function="internal">
        <lane id=":node_4_6_4_0" index="0" speed="25.00" length="2.34" shape="49700.00,2.40 49700.80,2.80 49701.60,4.00"/>
    </edge>
    <edge id=":node_4_6_2" function="internal">
        <lane id=":node_4_6_2_0" index="0" speed="25.00" length="0.10" shape="49701.60,4.00 49701.60,4.00"/>
    </edge>
    <edge id=":node_4_6_3" function="internal">
        <lane id=":node_4_6_3_0" index="0" speed="25.00" length="2.34" shape="49701.60,4.00 49700.80,5.20 49700.00,5.60"/>